MODEL 1
REMARK VINA RESULT:     -10.7      0.000      0.000
REMARK  6 active torsions:
REMARK  status: ('A' for Active; 'I' for Inactive)
REMARK    1  A    between atoms: C1_1  and  O2_4
REMARK    2  A    between atoms: O1_2  and  C13_17
REMARK    3  A    between atoms: C17_21  and  C19_23
REMARK    4  A    between atoms: C19_23  and  C21_25
REMARK    5  A    between atoms: C21_25  and  C22_26
REMARK    6  A    between atoms: C22_26  and  C23_27
ATOM      1  C1  DXC     1      -1.647 -11.086  -1.471  1.00  0.00     0.118 C
ATOM      2  C2  DXC     1      -2.861 -10.294  -0.987  1.00  0.00     0.037 C
ATOM      3  C3  DXC     1      -2.930  -8.870  -1.595  1.00  0.00    -0.004 C
ATOM      4  C4  DXC     1      -1.618  -8.044  -1.369  1.00  0.00    -0.036 C
ATOM      5  C5  DXC     1      -0.417  -8.920  -1.817  1.00  0.00     0.012 C
ATOM      6  C6  DXC     1      -0.364 -10.317  -1.179  1.00  0.00     0.032 C
ATOM      7  C7  DXC     1      -4.178  -8.126  -1.086  1.00  0.00     0.006 C
ATOM      8  C8  DXC     1      -4.056  -7.692   0.385  1.00  0.00     0.006 C
ATOM      9  C9  DXC     1      -2.788  -6.863   0.649  1.00  0.00    -0.005 C
ATOM     10  C10 DXC     1      -1.510  -7.614   0.143  1.00  0.00     0.001 C
ATOM     11  C11 DXC     1      -2.614  -6.547   2.136  1.00  0.00     0.001 C
ATOM     12  C12 DXC     1      -1.353  -5.685   2.476  1.00  0.00    -0.010 C
ATOM     13  C13 DXC     1      -0.117  -6.474   1.988  1.00  0.00     0.127 C
ATOM     14  C14 DXC     1      -0.228  -6.832   0.487  1.00  0.00     0.038 C
ATOM     15  C15 DXC     1      -3.754  -5.836   2.889  1.00  0.00     0.006 C
ATOM     16  C16 DXC     1      -3.076  -5.292   4.180  1.00  0.00     0.006 C
ATOM     17  C17 DXC     1      -1.531  -5.521   4.030  1.00  0.00     0.000 C
ATOM     18  C18 DXC     1      -1.627  -6.811  -2.302  1.00  0.00     0.016 C
ATOM     19  C20 DXC     1      -1.385  -4.301   1.795  1.00  0.00     0.018 C
ATOM     20  C19 DXC     1      -0.707  -4.459   4.799  1.00  0.00    -0.013 C
ATOM     21  C24 DXC     1      -1.198  -3.017   4.529  1.00  0.00     0.010 C
ATOM     22  C21 DXC     1       0.790  -4.593   4.468  1.00  0.00     0.015 C
ATOM     23  C22 DXC     1       1.532  -3.292   4.123  1.00  0.00     0.113 C
ATOM     24  C23 DXC     1       1.971  -3.205   2.610  1.00  0.00     0.172 C
ATOM     25  O4  DXC     1       2.671  -4.156   2.204  1.00  0.00    -0.648 OA
ATOM     26  O3  DXC     1       1.529  -2.209   1.973  1.00  0.00    -0.648 OA
ATOM     27  O1  DXC     1       0.008  -7.657   2.776  1.00  0.00    -0.395 OA
ATOM     28 1H1O DXC     1      -0.873  -8.067   2.829  1.00  0.00     0.210 HD
ATOM     29  O2  DXC     1      -1.687 -12.353  -0.816  1.00  0.00    -0.396 OA
ATOM     30  H2  DXC     1      -1.465 -12.196   0.126  1.00  0.00     0.210 HD
ENDMDL
MODEL 2
REMARK VINA RESULT:     -10.6      3.948      7.910
REMARK  6 active torsions:
REMARK  status: ('A' for Active; 'I' for Inactive)
REMARK    1  A    between atoms: C1_1  and  O2_4
REMARK    2  A    between atoms: O1_2  and  C13_17
REMARK    3  A    between atoms: C17_21  and  C19_23
REMARK    4  A    between atoms: C19_23  and  C21_25
REMARK    5  A    between atoms: C21_25  and  C22_26
REMARK    6  A    between atoms: C22_26  and  C23_27
ATOM      1  C1  DXC     1       3.516   1.204  -1.917  1.00  0.00     0.118 C
ATOM      2  C2  DXC     1       3.907   0.465  -0.638  1.00  0.00     0.037 C
ATOM      3  C3  DXC     1       4.605  -0.890  -0.917  1.00  0.00    -0.004 C
ATOM      4  C4  DXC     1       3.770  -1.828  -1.853  1.00  0.00    -0.036 C
ATOM      5  C5  DXC     1       3.347  -1.007  -3.102  1.00  0.00     0.012 C
ATOM      6  C6  DXC     1       2.636   0.319  -2.791  1.00  0.00     0.032 C
ATOM      7  C7  DXC     1       4.990  -1.582   0.403  1.00  0.00     0.006 C
ATOM      8  C8  DXC     1       3.775  -2.154   1.153  1.00  0.00     0.006 C
ATOM      9  C9  DXC     1       2.933  -3.095   0.275  1.00  0.00    -0.005 C
ATOM     10  C10 DXC     1       2.529  -2.399  -1.068  1.00  0.00     0.001 C
ATOM     11  C11 DXC     1       1.661  -3.555   0.991  1.00  0.00     0.001 C
ATOM     12  C12 DXC     1       0.765  -4.535   0.163  1.00  0.00    -0.010 C
ATOM     13  C13 DXC     1       0.365  -3.800  -1.136  1.00  0.00     0.127 C
ATOM     14  C14 DXC     1       1.608  -3.302  -1.911  1.00  0.00     0.038 C
ATOM     15  C15 DXC     1       1.781  -4.244   2.363  1.00  0.00     0.006 C
ATOM     16  C16 DXC     1       0.407  -4.950   2.556  1.00  0.00     0.006 C
ATOM     17  C17 DXC     1      -0.378  -4.824   1.203  1.00  0.00     0.000 C
ATOM     18  C18 DXC     1       4.676  -2.969  -2.370  1.00  0.00     0.016 C
ATOM     19  C20 DXC     1       1.498  -5.847  -0.189  1.00  0.00     0.018 C
ATOM     20  C19 DXC     1      -1.350  -6.009   0.982  1.00  0.00    -0.013 C
ATOM     21  C24 DXC     1      -2.466  -5.679  -0.037  1.00  0.00     0.010 C
ATOM     22  C21 DXC     1      -1.955  -6.469   2.319  1.00  0.00     0.015 C
ATOM     23  C22 DXC     1      -3.459  -6.217   2.511  1.00  0.00     0.113 C
ATOM     24  C23 DXC     1      -3.773  -5.002   3.467  1.00  0.00     0.172 C
ATOM     25  O4  DXC     1      -3.355  -3.893   3.072  1.00  0.00    -0.648 OA
ATOM     26  O3  DXC     1      -4.446  -5.282   4.497  1.00  0.00    -0.648 OA
ATOM     27  O1  DXC     1      -0.484  -2.705  -0.797  1.00  0.00    -0.395 OA
ATOM     28 1H1O DXC     1       0.032  -1.888  -0.915  1.00  0.00     0.210 HD
ATOM     29  O2  DXC     1       2.859   2.407  -1.519  1.00  0.00    -0.396 OA
ATOM     30  H2  DXC     1       2.560   2.855  -2.339  1.00  0.00     0.210 HD
ENDMDL
